/*--------------------------------*- C++ -*----------------------------------*\
| =========                 |                                                 |
| \\      /  F ield         | OpenFOAM Extend Project: Open Source CFD        |
|  \\    /   O peration     | Version:  1.6-ext                               |
|   \\  /    A nd           | Web:      www.extend-project.de                 |
|    \\/     M anipulation  |                                                 |
\*---------------------------------------------------------------------------*/
FoamFile
{
    version     2.0;
    format      ascii;
    class       dictionary;
    object      multiRandomDict;
}
// * * * * * * * * * * * * * * * * * * * * * * * * * * * * * * * * * * * * * //

dictionaryName  randomDict;

multiSolver
{
    T0Up
    {
        ascentRate  "ascentRate" [0 0 -1 1 0 0 0] 2.0;
    }
    T0Down
    {
        ascentRate  "ascentRate" [0 0 -1 1 0 0 0] -0.2476;
    }
//    stasis
//    {}
}

// ************************************************************************* //
